        24
  AtomType        X        Y        Z     SpinPolarization_r SpinPolarization_theta SpinPolarization_phi
         C    10.00    10.00     1.40     0.5   0.0  0.0
         C    10.00    10.00     4.20     0.5   0.0  0.0
         C    10.00    10.00     7.00     0.5   0.0  0.0
         C    10.00    10.00     9.80     0.5   0.0  0.0
         C    10.00    10.00    12.60     0.5   0.0  0.0
         C    10.00    10.00    15.40     0.5   0.0  0.0
         C    10.00    10.00    18.20     0.5   0.0  0.0
         C    10.00    10.00    21.00     0.5   0.0  0.0
         C    10.00    10.00    23.80     0.5   0.0  0.0
         C    10.00    10.00    26.60     0.5   0.0  0.0
         C    10.00    10.00    29.40     0.5   0.0  0.0
         C    10.00    10.00    32.20     0.5   0.0  0.0
         C    10.00    10.00    37.20     0.5  90.0  0.0
         C    10.00    10.00    40.00     0.5  90.0  0.0
         C    10.00    10.00    42.80     0.5  90.0  0.0
         C    10.00    10.00    45.60     0.5  90.0  0.0
         C    10.00    10.00    48.40     0.5  90.0  0.0
         C    10.00    10.00    51.20     0.5  90.0  0.0
         C    10.00    10.00    54.00     0.5  90.0  0.0
         C    10.00    10.00    56.80     0.5  90.0  0.0
         C    10.00    10.00    59.60     0.5  90.0  0.0
         C    10.00    10.00    62.40     0.5  90.0  0.0
         C    10.00    10.00    65.20     0.5  90.0  0.0
         C    10.00    10.00    68.00     0.5  90.0  0.0
