         8
  AtomType          X          Y          Z  SpinPolarization
         C  0.0000000  0.0000000  10.000000  0.2
         C  1.2297561  0.7100000  10.000000  0.2
         C  1.2297561  2.1300000  10.000000  0.2
         C  0.0000000  2.8400000  10.000000  0.2
         C  0.0000000  4.2600000  10.000000  0.2
         C  1.2297561  4.9700000  10.000000  0.2
         C  1.2297561  6.3900000  10.000000  0.2
         C  0.0000000  7.1000000  10.000000  0.2
